Version 4
SHEET 1 1020 740
WIRE 560 -288 560 -384
WIRE 560 -288 400 -288
WIRE 400 -272 400 -288
WIRE 400 -160 400 -192
WIRE 176 -112 80 -112
WIRE 336 -112 256 -112
WIRE 560 -80 560 -288
WIRE 656 -80 560 -80
WIRE 560 -64 560 -80
WIRE 656 -48 656 -80
WIRE 400 16 400 -64
WIRE 512 16 400 16
WIRE 656 32 656 16
WIRE 656 32 560 32
WIRE 400 80 400 16
WIRE 176 128 96 128
WIRE 336 128 256 128
WIRE 560 224 560 32
WIRE 976 224 560 224
WIRE 400 384 400 176
WIRE 560 400 560 224
WIRE 656 400 560 400
WIRE 560 416 560 400
WIRE 656 432 656 400
WIRE 320 496 176 496
WIRE 512 496 400 496
WIRE 656 512 656 496
WIRE 656 512 560 512
WIRE 560 720 560 512
FLAG 400 384 0
FLAG 560 720 0
FLAG 976 224 W
SYMBOL res 272 112 R90
WINDOW 0 0 56 VBottom 2
WINDOW 3 32 56 VTop 2
SYMATTR InstName R1
SYMBOL npn 336 80 R0
SYMATTR InstName Q1
SYMBOL npn 336 -160 R0
SYMATTR InstName Q2
SYMBOL res 272 -128 R90
WINDOW 0 0 56 VBottom 2
WINDOW 3 32 56 VTop 2
SYMATTR InstName R2
SYMBOL voltage 560 -480 R0
SYMATTR InstName V1
SYMBOL pmos 512 -64 R0
SYMATTR InstName M1
SYMBOL zener 672 16 R180
WINDOW 0 24 64 Left 2
WINDOW 3 24 0 Left 2
SYMATTR InstName D1
SYMBOL nmos 512 416 R0
SYMATTR InstName M2
SYMBOL res 384 -288 R0
SYMATTR InstName R3
SYMBOL zener 672 496 R180
WINDOW 0 24 64 Left 2
WINDOW 3 24 0 Left 2
SYMATTR InstName D2
SYMBOL res 304 480 M90
WINDOW 0 0 56 VBottom 2
WINDOW 3 32 56 VTop 2
SYMATTR InstName R4
